"""
FACE Gasoline Surrogates Kinetic Model
Ver 1 - last modified March 10, 2016


Compositional effects on the ignition of FACE gasoline fuels
S. Mani Sarathy1, Goutham Kukkadapu2, Marco Mehl3, Tamour Javed1, Ahfaz Ahmed1, Nimal Naser1, Aniket Tekawade4, Graham Kosiba4, Mohammed Al Abbad1, Eshan Singh1, Sungwoo Park1, Mariam Al Rashidi1, Suk Ho Chung1, William L. Roberts1, Matthew A. Oehlschlaeger4, Chih-Jen Sung2, Aamir Farooq1
1 Clean Combustion Research Center, King Abdullah University of Science and Technology, Kingdom of Saudi Arabia
2 Department of Mechanical Engineering, University of Connecticut, Storrs, CT, United States
3 Lawrence Livermore National Laboratory, Livermore, CA, USA
4 Mechanical, Aerospace, and Nuclear Engineering, Rensselaer Polytechnic Institute, Troy, NY, USA


"""

units(length='cm', time='s', quantity='mol', act_energy='cal/mol')

ideal_gas(name='gas',
          elements="C H N O Ar He",
          species="""OC6H4CH2         O-O2C6H4CH3      OCH3C6H4O
                     DMCPD            DMCPDR           O-XYLCH2
                     T124MBZ          O-XYLCH2O        O-XYLCHO
                     O-XYLCO          PCHOTOLCH2O      PCHOTOLCHO
                     PCHOTOLCO        P-XYLCH2         P-XYLCH2O
                     P-XYLCHO         P-XYLCO          P-CH3C6H4CH2
                     P-XYL            CH3C6H3CH3       CH3C6H4CHO
                     CH3C6H4CH2O      OCH3C6H3CH3      HOCH3C6H3CH3
                     CH3C6H4CO        O-XYL            O-CH3C6H4CH2
                     O-CH3C6H4CH2OO   O-CH3C6H4CH2OOH  C6H5CH2CH2OO
                     C6H5CHOOCH3      FULVENE          NAPH
                     C6H5CH2          C3H2             C3H2(S)
                     C6H5CH3          C6H4CH3          OC6H4CH3
                     HOC6H4CH3        C6H5CH2OO        BZCOOH
                     C6H5CH2O         HOC6H4CH2        C6H5CHO
                     C6H5CH2OH        C6H5C2H5         C14H14
                     C14H13           C14H12           C14H11
                     C6H5CO           C14H13OO         C14H12OOH
                     C14H13O          C14H13OOH        C14H12O2H-1O2
                     C14H11O-1O2H     HOC6H4CH2OO      HOC6H4CH2O
                     HOC6H4CH2OOH     HOC6H4CHO        C6H5CHOH
                     C6H5CHCH3        C6H5CH2CH2       C6H5C2H3
                     HOC6H4CO         C6H5CCH2         C6H5CHCH
                     C5H5CH3          C9H8             C10H9
                     C10H10           CH2CHCHCO        NAPH-
                     NAPH*            NAPHO            C9H7
                     C9H6O            C6H5C2H          C6H4C2H3
                     C6H5CH2CO        C6H5CH2COCH2     H
                     H2               O                O2
                     OH               OH*              H2O
                     N2               HO2              H2O2
                     CO               CO2              CH2O
                     HCO              HO2CHO           HCOH
                     O2CHO            HOCHO            OCHO
                     OCH2O2H          HOCH2O           CH3OH
                     CH2OH            CH3O             CH3O2H
                     CH3O2            CH4              CH3
                     CH2              CH2(S)           C
                     CH               C2H6             C2H5
                     C2H4             C2H3             C2H2
                     C2H              CH3CHO           C2H3OH
                     C2H2OH           CH3CO            CH2CHO
                     O2CH2CHO         HO2CH2CO         CH2CO
                     HCCO             HCCOH            CH3CO3H
                     CH3CO3           CH3CO2           C2H5OH
                     C2H5O            PC2H4OH          SC2H4OH
                     O2C2H4OH         C2H5O2H          C2H5O2
                     C2H4O2H          C2H4O1-2         C2H3O1-2
                     CH3COCH3         CH3COCH2         CH3COCH2O2
                     C3KET21          C2H3CHO          C2H3CO
                     C2H5CHO          C2H5CO           CH3OCO
                     C3H8             IC3H7            NC3H7
                     C3H6             C3H5-A           C3H5-S
                     C3H5-T           C3H4-P           C3H4-A
                     C3H3             C3H5O            C3H6OOH1-2
                     C3H6OOH1-3       C3H6OOH2-1       C3H6OOH1-2O2
                     C3H6OOH1-3O2     C3H6OOH2-1O2     IC3H7O2H
                     NC3H7O2          IC3H7O2          NC3H7O
                     IC3H7O           C3H6O1-2         C3H6O1-3
                     C3KET12          C3KET13          C3H51-2,3OOH
                     C3H52-1,3OOH     C3H6OH           HOC3H6O2
                     CH3CHCO          AC3H5OOH         CC3H4
                     H2CC             C4H10            C4H8-1
                     C4H8-2           PC4H9            SC4H9
                     C4H71-1          C4H71-2          C4H71-3
                     C4H71-4          C4H72-2          C4H6
                     PC4H9O2H         PC4H9O2          SC4H9O2
                     PC4H9O           C4H7O            C4H8O1-3
                     PC4H8OH          SC4H8OH          C4H8OH-1O2
                     C4H8OH-2O2       C4H8OOH1-3       C4H8OOH1-4
                     C4H8OOH2-4       C4H8OOH1-3O2     C4H8OOH1-4O2
                     C4H8OOH2-4O2     NC4KET13         NC4KET14
                     NC4KET24         C2H5COCH3        C2H5COCH2
                     CH2CH2COCH3      CH3CHCOCH3       C2H3COCH3
                     CH3CHOOCOCH3     CH2CHOOHCOCH3    NC3H7CHO
                     NC3H7CO          C3H6CHO-1        C3H6CHO-2
                     C3H6CHO-3        SC3H5CHO         SC3H5CO
                     CH2CH2CHO        IC4H10           IC4H9
                     TC4H9            IC4H8            IC4H7
                     TC4H9O2          IC4H9O2          TC4H8O2H-I
                     IC4H8O2H-I       IC4H8O2H-T       IC4H8O
                     CC4H8O           IC4H9O           TC4H9O
                     IC4H9O2H         TC4H9O2H         IC4H7O
                     IC4H8OH          IO2C4H8OH        IC3H7CHO
                     TC3H6CHO         IC3H7CO          IC3H6CHO
                     TC4H8OOH-IO2     IC4H8OOH-IO2     IC4H8OOH-TO2
                     IC4KETII         IC4H7OH          IC4H6OH
                     IC3H5CHO         IC3H5CO          TC3H6OCHO
                     IC3H6CO          IC4H7OOH         TC3H6OH
                     IC3H5OH          TC3H6O2CHO       TC3H6O2HCO
                     IC3H5O2HCHO      CH2CCH2OH        TC4H8CHO
                     O2C4H8CHO        O2HC4H8CO        C4H4
                     C4H3-I           C4H3-N           C4H612
                     C4H2             C4H5-I           C4H5-N
                     CH3CHCHCO        CH2CHCHCHO       C2H3CHOCH2
                     C4H5-2           C4H6-2           C4H6O23
                     C4H4O            H2C4O            C6H6
                     C*CCJC*C         C5H6             C6H5
                     C6H2             C6H3             L-C6H4
                     C-C6H4           C6H5O            C6H5OH
                     P-C6H4O2         O-C6H4O2         P-C6H3O2
                     C5H5             C5H4O            C5H5O
                     C5H5OH           C5H4OH           C5H3O
                     C6H5OO           C6H5OOH          OC6H4OH
                     C6H4OH           O-OC6H5OJ        C#CC*CCJ
                     CJ*CC*CC*O       C*CC*CCJ*O       CJ*CC*O
                     OC5H7O           C*CCJC*COH       C*CC*CCJ
                     C*CC*CCOH        HOCO             PBZ
                     PBZJA            PBZJB            C6H5C3H5-2
                     C6H5C3H4         AOC6H5C3H4-2     C6H4C2H
                     C9H7O            C5H11-1          C5H11-2
                     C5H11-3          C5H10-1          C5H10-2
                     C5H81-3          C5H91-3          C5H91-4
                     C5H91-5          C5H92-4          C5H92-5
                     C5H9O1-3         C5H9O2-4         C5H11O2-1
                     C5H11O2-2        C5H11O2-3        C5H10OOH1-3
                     C5H10OOH1-4      C5H10OOH2-4      C5H10O1-4
                     C5H10OOH1-3O2    C5H10OOH2-4O2    NC5KET13
                     NC5KET24         C5H10OH-1        C5H10OH-2
                     O2C5H10OH-1      O2C5H10OH-2      NC6H14
                     C6H13-1          C6H13-2          C6H13-3
                     C6H12-1          C6H12-2          C6H12-3
                     C6H111-3         C6H111-4         C6H111-5
                     C6H111-6         C6H112-4         C6H112-5
                     C6H112-6         C6H113-1         C6H13O2-1
                     C6H13O2-2        C6H13O2-3        NC6KET13
                     C6H12OH-1        C6H12OH-3        O2C6H12OH-1
                     O2C6H12OH-3      NC4H9CHO         NC4H9CO
                     C4H8CHO-1        C4H8CHO-2        C4H8CHO-3
                     C4H8CHO-4        AC3H5CO          NC3H7COCH3
                     NC3H7COCH2       C3H6COCH3-1      C3H6COCH3-2
                     C2H5COC2H5       C2H5COC2H4P      C2H5COC2H4S
                     C2H5COC2H3       PC2H4COC2H3      NC7H16
                     C7H15-1          C7H15-2          C7H15-3
                     C7H15-4          C7H14-1          C7H14-2
                     C7H14-3          C7H131-3         C7H131-4
                     C7H131-5         C7H131-6         C7H131-7
                     C7H132-4         C7H132-5         C7H132-6
                     C7H132-7         C7H133-1         C7H133-5
                     C7H133-6         C7H133-7         C7H13O1-3
                     C7H13O2-4        C7H13O3-5        C7H15O2-1
                     C7H15O2-2        C7H15O2-3        C7H15O2-4
                     C7H15O2H-2       C7H15O2H-3       C7H15O-1
                     C7H15O-2         C7H15O-3         C7H14OOH1-2
                     C7H14OOH1-3      C7H14OOH1-4      C7H14OOH2-1
                     C7H14OOH2-3      C7H14OOH2-4      C7H14OOH2-5
                     C7H14OOH3-1      C7H14OOH3-2      C7H14OOH3-4
                     C7H14OOH3-5      C7H14OOH3-6      C7H14OOH4-1
                     C7H14OOH4-2      C7H14OOH4-3      C7H14OOH1-2O2
                     C7H14OOH1-3O2    C7H14OOH1-4O2    C7H14OOH2-1O2
                     C7H14OOH2-3O2    C7H14OOH2-4O2    C7H14OOH2-5O2
                     C7H14OOH3-1O2    C7H14OOH3-2O2    C7H14OOH3-4O2
                     C7H14OOH3-5O2    C7H14OOH3-6O2    C7H14OOH4-1O2
                     C7H14OOH4-2O2    C7H14OOH4-3O2    C7H14O1-3
                     C7H14O1-4        C7H14O2-4        C7H14O2-5
                     C7H14O3-5        NC7KET12         NC7KET13
                     NC7KET14         NC7KET23         NC7KET24
                     NC7KET25         NC7KET31         NC7KET32
                     NC7KET34         NC7KET35         NC7KET36
                     NC7KET42         NC7KET43         C7H14OH-1
                     C7H14OH-2        C7H14OH-3        O2C7H14OH-1
                     O2C7H14OH-2      O2C7H14OH-3      NC5H11CHO
                     C4H7CHO1-4       C4H7CO1-4        C4H6CHO1-43
                     C4H6CHO1-44      NC4H9COCH2       C4H7OOH1-4
                     C4H7O1-4         C5H9OOH1-4       C5H9O1-4
                     C5H91-1          C4H7CHO1-1       C4H7CO1-1
                     C4H6CHO1-13      CHCHCHO          C6H101-3
                     C6H101-4         C6H101-5         C6H112O2-1
                     C6H111O2-3       C6H111O2-4       C6H111O2-5
                     C6H111O2-6       C6H112O2-4       C6H112O2-6
                     C6H113O2-1       C6H113O2-2       C5H81-4
                     CH3C6H4CHCH      HOC6H4C2H        OC6H4C2H
                     CH3C6H4C2H       CH2C6H4C2H       C7H5
                     O2C6H4C2H        A2CH2            A2CH3
                     C7H6             IC5H12           AC5H11
                     BC5H11           CC5H11           DC5H11
                     AC5H10           BC5H10           CC5H10
                     AC5H9-A2         AC5H9-C          AC5H9-D
                     CC5H9-A          CC5H9-B          AC5H9O-A2
                     AC5H9O-C         CC5H9O-B         AC5H11O2H
                     BC5H11O2H        CC5H11O2H        AC5H11O2
                     BC5H11O2         CC5H11O2         DC5H11O2
                     AC5H11O          BC5H11O          CC5H11O
                     DC5H11O          AC5H10OOH-A      AC5H10OOH-B
                     AC5H10OOH-C      AC5H10OOH-D      BC5H10OOH-A
                     BC5H10OOH-C      BC5H10OOH-D      CC5H10OOH-A
                     CC5H10OOH-B      CC5H10OOH-D      DC5H10OOH-A
                     DC5H10OOH-B      DC5H10OOH-C      A-AC5H10O
                     A-BC5H10O        A-CC5H10O        A-DC5H10O
                     B-CC5H10O        B-DC5H10O        AC5H10OOH-AO2
                     AC5H10OOH-BO2    AC5H10OOH-CO2    AC5H10OOH-DO2
                     BC5H10OOH-AO2    BC5H10OOH-CO2    BC5H10OOH-DO2
                     CC5H10OOH-AO2    CC5H10OOH-BO2    CC5H10OOH-DO2
                     DC5H10OOH-AO2    DC5H10OOH-BO2    DC5H10OOH-CO2
                     IC5KETAA         IC5KETAB         IC5KETAC
                     IC5KETCA         IC5KETCB         IC5KETCD
                     IC5KETDB         IC5KETDC         AC5H10OH
                     BC5H10OH         CC5H10OH         AO2C5H10OH
                     BO2C5H10OH       CO2C5H10OH       CH3CHCHO
                     IC6H14           AC6H13           BC6H13
                     CC6H13           DC6H13           EC6H13
                     AC6H12           BC6H12           CC6H12
                     DC6H12           AC6H11-A2        AC6H11-C
                     AC6H11-D         AC6H11-E         BC6H11-E
                     CC6H11-A         CC6H11-B         DC6H11-A
                     DC6H11-B         DC6H11-C         AC6H11O-C
                     CC6H11O-B        DC6H11O-C        AC6H13O2
                     BC6H13O2         CC6H13O2         DC6H13O2
                     EC6H13O2         AC6H13O2H        CC6H13O2H
                     AC6H13O          CC6H13O          AC6H12OOH-A
                     AC6H12OOH-B      AC6H12OOH-C      AC6H12OOH-D
                     BC6H12OOH-A      BC6H12OOH-C      BC6H12OOH-D
                     BC6H12OOH-E      CC6H12OOH-A      CC6H12OOH-B
                     CC6H12OOH-D      CC6H12OOH-E      DC6H12OOH-A
                     DC6H12OOH-B      DC6H12OOH-C      DC6H12OOH-E
                     EC6H12OOH-B      EC6H12OOH-C      EC6H12OOH-D
                     A-CC6H12O        A-DC6H12O        B-DC6H12O
                     B-EC6H12O        C-EC6H12O        AC6H12OOH-AO2
                     AC6H12OOH-BO2    AC6H12OOH-CO2    AC6H12OOH-DO2
                     BC6H12OOH-CO2    BC6H12OOH-DO2    CC6H12OOH-AO2
                     CC6H12OOH-BO2    CC6H12OOH-DO2    CC6H12OOH-EO2
                     DC6H12OOH-AO2    DC6H12OOH-BO2    DC6H12OOH-CO2
                     DC6H12OOH-EO2    EC6H12OOH-BO2    EC6H12OOH-CO2
                     EC6H12OOH-DO2    IC6KETAA         IC6KETAC
                     IC6KETAD         IC6KETCA         IC6KETCD
                     IC6KETCE         IC6KETDA         IC6KETDB
                     IC6KETDC         IC6KETEC         AC6H12OH
                     BC6H12OH         CC6H12OH         DC6H12OH
                     AO2C6H12OH       BO2C6H12OH       CO2C6H12OH
                     BC5H10CHO        C4H7CO2-1        C5H10CHO3-2
                     C5H10CHO4-2      IC4H9COCH3       IC3H6CH2COCH3
                     TC3H6CH2COCH3    IC3H6COC2H5      IC3H7COCH2
                     IC5H8            IC5H7            IC4H7-I1
                     C7H16-24         XC7H15           YC7H15
                     ZC7H15           XC7H14           YC7H14
                     XC7H13-X1        XC7H13-Z         XC7H13-X2
                     XC7H13-Y2        YC7H13-Y2        YC7H13-X2
                     XC7H13O-Z        YC7H13O-Y2       XC7H15O2
                     YC7H15O2         ZC7H15O2         XC7H14OOH-Y1
                     YC7H14OOH-X1     YC7H14OOH-Z      YC7H14OOH-Y2
                     ZC7H14OOH-X      ZC7H14OOH-Y      YC7H14OOH-Y2O2
                     XC7H14OH         YC7H14OH         XO2C7H14OH
                     YO2C7H14OH       ACC6H10          ACC6H9-A
                     ACC6H9-D         NEOC5H11         NEOC5H11O2
                     NEOC5H11O        NEOC5H10OOH      NEO-C5H10O
                     NEOC5H10OOH-O2   NEOC5H9Q2-N      NEOC5KET
                     NEOC5KETOX       NEOC5KEJOL       GC6H13
                     HC6H13           NEOC6H12         NEOC6H11
                     TC4H9CHO         TC4H9CO          NEOC5H11CO
                     IC4H7CO          NC7H15           OC7H15
                     PC7H15           QC7H15           OC7H14
                     PC7H14           OC7H13-N         PC7H13-N
                     PC7H13-O         OC7H15O2         PC7H15O2
                     QC7H15O2         OC7H14OH         PC7H14OH
                     OO2C7H14OH       PO2C7H14OH       IC8H18
                     AC8H17           BC8H17           CC8H17
                     DC8H17           IC8H16           JC8H16
                     IC8H15           AC8H17O2         BC8H17O2
                     CC8H17O2         DC8H17O2         AC8H17O2H
                     BC8H17O2H        AC8H17O          BC8H17O
                     DC8H17O          AC8H16OOH-A      AC8H16OOH-B
                     AC8H16OOH-C      BC8H16OOH-C      BC8H16OOH-A
                     BC8H16OOH-D      CC8H16OOH-A      DC8H16OOH-C
                     DC8H16OOH-D      DC8H16OOH-B      IC8ETERAA
                     IC8ETERAB        IC8ETERAC        IC8ETERBC
                     IC8ETERBD        IC8ETERDD        AC8H16OOH-AO2
                     AC8H16OOH-BO2    AC8H16OOH-CO2    BC8H16OOH-CO2
                     BC8H16OOH-AO2    BC8H16OOH-DO2    CC8H16OOH-AO2
                     DC8H16OOH-CO2    DC8H16OOH-DO2    DC8H16OOH-BO2
                     IC8KETAA         IC8KETAB         IC8KETBA
                     IC8KETBC         IC8KETBD         IC8KETDB
                     IC8KETDD         CC8H16OH-B       BC8H16OH-C
                     CC8H16OH-BO2     CC8H16O-BO2H     CC8H16OH-D
                     DC8H16OH-C       BC8H16OH-CO2     BC8H16O-CO2H
                     CC8H16OH-DO2     CC8H16O-DO2H     DC8H16OH-CO2
                     DC8H16O-CO2H     DC6H12CHO-D      IC3H7COC3H6-T
                     TC4H9COC2H4S     NEOC5H11COCH3    NEOC5H10COCH3
                     NEOC5H11COCH2    HC6H12CHO        YC7H13OOH-X1
                     YC7H13O-X1       YC7H13OOH-X2     YC7H13O-X2
                     CC6H11-D         C3COC3H6P        NC3H7COC3H6P
                     IC6H11           IC5H9            C7H15-2D
                     C7H14-2-2        C7H14-3-2        C7H13-1-2
                     C8H18-2          C8H16-2-2        C8H15-1-2
                     C2H2OOH          BT1EN3Q4J        CH2cC5H9
                     CPT              CYC5H9           CYC5H8
                     CYC5H71-3        CYC5H71-4        CYC51EN3OJ
                     C4H6CHO2-5       NC3H4OH1-3       CPTO2H
                     CPTO2J           CPT1Q2J          CPT1Q3J
                     CPTOJ            CPTQ3QJ          CPT1*O3Q
                     CPT1*O2J         CPTYO12          CPTYO123J
                     PT1N3*O5J        PT1N3Q5J         PT1N4Q5J
                     CPTYO13          C5H714-1""",
          reactions='all',
          initial_state=state(temperature=300.0, pressure=OneAtm))

#-------------------------------------------------------------------------------
# Species data
#-------------------------------------------------------------------------------

species(name='OC6H4CH2',
        atoms='O:1 C:7 H:6',
        thermo=(NASA([300.00, 1000.00],
                     [-6.21979546E-01,  5.14918065E-02, -6.11682462E-06,
                      -2.88887155E-08,  1.45119845E-11,  4.44241036E+03,
                       2.88224802E+01]),
                NASA([1000.00, 5000.00],
                     [ 1.24204756E+01,  2.70171830E-02, -1.09476851E-05,
                       2.02705529E-09, -1.40757462E-13,  4.49159466E+02,
                      -4.10236260E+01])),
        note='012508')

species(name='O-O2C6H4CH3',
        atoms='O:2 C:7 H:7',
        thermo=(NASA([300.00, 1408.00],
                     [-5.17635366E+00,  9.32722534E-02, -8.64517889E-05,
                       4.02042133E-08, -7.33445923E-12,  1.10698763E+04,
                       5.15568699E+01]),
                NASA([1408.00, 5000.00],
                     [ 2.12862164E+01,  1.93020680E-02, -6.48485440E-06,
                       9.95146950E-10, -5.72828260E-14,  3.19865442E+03,
                      -8.60791351E+01])),
        note='9/21/15')

species(name='OCH3C6H4O',
        atoms='O:2 C:7 H:7',
        thermo=(NASA([300.00, 1393.00],
                     [-7.52070990E+00,  1.02608161E-01, -9.63634740E-05,
                       4.67996378E-08, -9.30610980E-12, -1.28835146E+04,
                       6.17472818E+01]),
                NASA([1393.00, 5000.00],
                     [ 2.34089224E+01,  1.94710682E-02, -6.88461038E-06,
                       1.09305933E-09, -6.44198189E-14, -2.25981891E+04,
                      -1.00680802E+02])),
        note='8/5/13THERM')

species(name='DMCPD',
        atoms='C:7 H:10',
        thermo=(NASA([300.00, 1386.00],
                     [-4.82340750E+00,  8.50625196E-02, -6.89290712E-05,
                       3.10077815E-08, -6.11095575E-12,  5.43505899E+03,
                       4.44497051E+01]),
                NASA([1386.00, 5000.00],
                     [ 2.00248060E+01,  2.43495490E-02, -8.53823668E-06,
                       1.34790861E-09, -7.91193117E-14, -3.09399678E+03,
                      -8.84053401E+01])),
        note='1/29/14THERM')

species(name='DMCPDR',
        atoms='C:7 H:9',
        thermo=(NASA([300.00, 1389.00],
                     [-4.56858034E+00,  8.66194297E-02, -7.70176014E-05,
                       3.71987602E-08, -7.58546684E-12,  1.83845398E+04,
                       4.34855535E+01]),
                NASA([1389.00, 5000.00],
                     [ 2.04343496E+01,  2.14241190E-02, -7.52207770E-06,
                       1.18852109E-09, -6.98061615E-14,  1.02066346E+04,
                      -8.87542108E+01])),
        note='1/29/14THERM')

species(name='O-XYLCH2',
        atoms='C:9 H:11',
        thermo=(NASA([300.00, 1392.00],
                     [-4.13497753E+00,  9.53293590E-02, -7.34716801E-05,
                       3.02026049E-08, -5.32197819E-12,  1.46587662E+04,
                       4.53585002E+01]),
                NASA([1392.00, 5000.00],
                     [ 2.39581012E+01,  2.75181275E-02, -9.38842803E-06,
                       1.45597138E-09, -8.44340996E-14,  5.14316220E+03,
                      -1.04756566E+02])),
        note='2012')

species(name='T124MBZ',
        atoms='C:9 H:12',
        thermo=(NASA([298.00, 1392.00],
                     [-4.52031910E+00,  9.10856982E-02, -6.10521718E-05,
                       2.11015054E-08, -3.13265418E-12, -4.13404706E+03,
                       4.74776319E+01]),
                NASA([1392.00, 5000.00],
                     [ 2.25964175E+01,  3.07854835E-02, -1.05107931E-05,
                       1.63052847E-09, -9.45678618E-14, -1.37997667E+04,
                      -9.91807521E+01])),
        note='RUSCIC')

species(name='O-XYLCH2O',
        atoms='O:1 C:9 H:11',
        thermo=(NASA([300.00, 1379.00],
                     [-4.14022989E+00,  9.30579019E-02, -6.55896152E-05,
                       2.48763103E-08, -4.20921802E-12,  3.76054722E+03,
                       5.13616298E+01]),
                NASA([1379.00, 5000.00],
                     [ 2.36857214E+01,  2.99905652E-02, -1.01884070E-05,
                       1.57646499E-09, -9.13070824E-14, -6.11566572E+03,
                      -9.88580414E+01])),
        note='2012')

species(name='O-XYLCHO',
        atoms='O:1 C:9 H:10',
        thermo=(NASA([300.00, 1372.00],
                     [-1.96425710E+00,  8.20459706E-02, -5.33528270E-05,
                       1.82701152E-08, -2.85579173E-12, -1.49494352E+04,
                       3.98966887E+01]),
                NASA([1372.00, 5000.00],
                     [ 2.31358247E+01,  2.81807117E-02, -9.62221828E-06,
                       1.49399799E-09, -8.67401397E-14, -2.41672246E+04,
                      -9.66934594E+01])),
        note='2012')

species(name='O-XYLCO',
        atoms='O:1 C:9 H:9',
        thermo=(NASA([300.00, 1374.00],
                     [-1.18621852E+00,  7.92545561E-02, -5.35425253E-05,
                       1.89842491E-08, -3.00658522E-12,  2.45682686E+03,
                       3.70079931E+01]),
                NASA([1374.00, 5000.00],
                     [ 2.32503000E+01,  2.55969013E-02, -8.74279116E-06,
                       1.35782810E-09, -7.88519658E-14, -6.36738572E+03,
                      -9.54882027E+01])),
        note='2012')

species(name='PCHOTOLCH2O',
        atoms='O:2 C:9 H:9',
        thermo=(NASA([300.00, 1371.00],
                     [-1.16539837E+00,  8.22415654E-02, -5.54188489E-05,
                       2.06157748E-08, -3.62856350E-12, -7.11988893E+03,
                       4.07244087E+01]),
                NASA([1371.00, 5000.00],
                     [ 2.38626730E+01,  2.80765110E-02, -9.69541487E-06,
                       1.51646077E-09, -8.84847489E-14, -1.63639763E+04,
                      -9.54928681E+01])),
        note='2012')

species(name='PCHOTOLCHO',
        atoms='O:2 C:9 H:8',
        thermo=(NASA([300.00, 1366.00],
                     [ 1.07059529E+00,  7.08875802E-02, -4.23315833E-05,
                       1.31018121E-08, -1.94746641E-12, -2.58384577E+04,
                       2.89889800E+01]),
                NASA([1366.00, 5000.00],
                     [ 2.29851683E+01,  2.65128220E-02, -9.11507919E-06,
                       1.42161612E-09, -8.27900116E-14, -3.42016201E+04,
                      -9.12999765E+01])),
        note='2012')

species(name='PCHOTOLCO',
        atoms='O:2 C:9 H:7',
        thermo=(NASA([300.00, 1368.00],
                     [ 1.88060671E+00,  6.79424125E-02, -4.24548539E-05,
                       1.37930726E-08, -2.08520738E-12, -8.43544470E+03,
                       2.66556875E+01]),
                NASA([1368.00, 5000.00],
                     [ 2.30091729E+01,  2.39331694E-02, -8.22149229E-06,
                       1.28164739E-09, -7.46174066E-14, -1.63451489E+04,
                      -8.88273515E+01])),
        note='2012')

species(name='P-XYLCH2',
        atoms='C:9 H:11',
        thermo=(NASA([300.00, 1392.00],
                     [-4.13497753E+00,  9.53293590E-02, -7.34716801E-05,
                       3.02026049E-08, -5.32197819E-12,  1.46587662E+04,
                       4.53585002E+01]),
                NASA([1392.00, 5000.00],
                     [ 2.39581012E+01,  2.75181275E-02, -9.38842803E-06,
                       1.45597138E-09, -8.44340996E-14,  5.14316220E+03,
                      -1.04756566E+02])),
        note='2012')

species(name='P-XYLCH2O',
        atoms='O:1 C:9 H:11',
        thermo=(NASA([300.00, 1379.00],
                     [-4.14022989E+00,  9.30579019E-02, -6.55896152E-05,
                       2.48763103E-08, -4.20921802E-12,  3.76054722E+03,
                       5.13616298E+01]),
                NASA([1379.00, 5000.00],
                     [ 2.36857214E+01,  2.99905652E-02, -1.01884070E-05,
                       1.57646499E-09, -9.13070824E-14, -6.11566572E+03,
                      -9.88580414E+01])),
        note='2012')

species(name='P-XYLCHO',
        atoms='O:1 C:9 H:10',
        thermo=(NASA([300.00, 1372.00],
                     [-1.96425710E+00,  8.20459706E-02, -5.33528270E-05,
                       1.82701152E-08, -2.85579173E-12, -1.49494352E+04,
                       3.98966887E+01]),
                NASA([1372.00, 5000.00],
                     [ 2.31358247E+01,  2.81807117E-02, -9.62221828E-06,
                       1.49399799E-09, -8.67401397E-14, -2.41672246E+04,
                      -9.66934594E+01])),
        note='2012')

species(name='P-XYLCO',
        atoms='O:1 C:9 H:9',
        thermo=(NASA([300.00, 1374.00],
                     [-1.18621852E+00,  7.92545561E-02, -5.35425253E-05,
                       1.89842491E-08, -3.00658522E-12,  2.45682686E+03,
                       3.70079931E+01]),
                NASA([1374.00, 5000.00],
                     [ 2.32503000E+01,  2.55969013E-02, -8.74279116E-06,
                       1.35782810E-09, -7.88519658E-14, -6.36738572E+03,
                      -9.54882027E+01])),
        note='2012')

species(name='P-CH3C6H4CH2',
        atoms='C:8 H:9',
        thermo=(NASA([300.00, 1395.00],
                     [-5.14234885E+00,  9.13700365E-02, -7.98004999E-05,
                       3.75980704E-08, -7.43523326E-12,  1.91935309E+04,
                       4.88299766E+01]),
                NASA([1395.00, 5000.00],
                     [ 2.07324230E+01,  2.35417931E-02, -8.11892856E-06,
                       1.26773140E-09, -7.38526644E-14,  1.08491884E+04,
                      -8.77408764E+01])),
        note='2012')

species(name='P-XYL',
        atoms='C:8 H:10',
        thermo=(NASA([298.00, 1393.00],
                     [-5.48061994E+00,  8.68042898E-02, -6.68481581E-05,
                       2.81706209E-08, -5.18167274E-12,  3.96907245E+02,
                       5.11636761E+01]),
                NASA([1393.00, 5000.00],
                     [ 1.94360884E+01,  2.67127238E-02, -9.20115418E-06,